/*--------------------------------*- C++ -*----------------------------------*\
| =========                 |                                                 |
| \\      /  F ield         | foam-extend: Open Source CFD                    |
|  \\    /   O peration     | Version:     4.0                                |
|   \\  /    A nd           | Web:         http://www.foam-extend.org         |
|    \\/     M anipulation  |                                                 |
\*---------------------------------------------------------------------------*/
FoamFile
{
    version     2.0;
    format      ascii;
    class       dictionary;
    object      blockMeshDict;
}
// * * * * * * * * * * * * * * * * * * * * * * * * * * * * * * * * * * * * * //

convertToMeters 1e-6;

vertices
(
    (0    0 -0.01)
    (1000 0 -10.01)
    
    (0    2000 -0.01)
    (1000 2000 -10.01)
    
    (0    0 0.01)
    (1000 0 10.01)
    
    (0    2000 0.01)
    (1000 2000 10.01)
);

blocks
(
    hex (0 1 3 2 4 5 7 6)  (100 200 1) simpleGrading (1 1 1)
);

edges
(
);

patches
(
    symmetryPlane left
    (
        (0 2 6 4)
    )
    patch outside
    (
        (1 3 7 5)
        (2 3 7 6)
    )
    wedge front
    (
        (0 1 3 2)
    )
    wedge back
    (
        (4 5 7 6)
    )
    wall interface
    (
        (0 1 5 4)
    )
);

mergePatchPairs
(
);


// ************************************************************************* //
