/*--------------------------------*- C++ -*----------------------------------*\
| =========                 |                                                 |
| \\      /  F ield         | foam-extend: Open Source CFD                    |
|  \\    /   O peration     | Version:     4.0                                |
|   \\  /    A nd           | Web:         http://www.foam-extend.org         |
|    \\/     M anipulation  |                                                 |
\*---------------------------------------------------------------------------*/
FoamFile
{
    version     2.0;
    format      ascii;
    class       volScalarField;
    object      p;
}
// * * * * * * * * * * * * * * * * * * * * * * * * * * * * * * * * * * * * * //

dimensions      [1 -1 -2 0 0 0 0];

internalField   uniform 101325;

boundaryField
{
    interface
    {
        type zeroGradient;
    }
    outside
    {
        type            waveTransmissive;
        field           p_rgh;
        phi             phi;
        rho             rho;
        psi             psi1;
        fieldInf        101325;
        gamma           7.15;
        lInf            0;
        value           uniform 101325;
        inletOutlet     true;
        correctSupercritical false;
    }
    left
    {
        type symmetryPlane;
    }
    front
    {
        type            wedge;
    }
    back
    {
        type            wedge;
    }
}


// ************************************************************************* //
