/*--------------------------------*- C++ -*----------------------------------*\
| =========                 |                                                 |
| \\      /  F ield         | foam-extend: Open Source CFD                    |
|  \\    /   O peration     | Version:     4.0                                |
|   \\  /    A nd           | Web:         http://www.foam-extend.org         |
|    \\/     M anipulation  |                                                 |
\*---------------------------------------------------------------------------*/
FoamFile
{
    version     2.0;
    format      ascii;
    class       dictionary;
    object      blockMeshDict;
}
// * * * * * * * * * * * * * * * * * * * * * * * * * * * * * * * * * * * * * //

convertToMeters 1e-6;

vertices
(
    (   0 -160    0)
    (1000 -160    0)
    
    (   0    0    0)
    (1000    0    0)
    
    (   0 -160 1000)
    (1000 -160 1000)
    
    (   0    0 1000)
    (1000    0 1000)
);

blocks
(
    hex (0 1 3 2 4 5 7 6) (50 8 50) simpleGrading (1 1 1)
);

edges
(
);

patches
(
    wall interface
    (
        (0 1 5 4)
        (2 3 7 6)
    )
    wall outside
    (
        (1 3 7 5)
        (4 5 7 6)
    )
    symmetryPlane bottom
    (
        (0 1 3 2)
    )
    symmetryPlane left
    (
        (0 2 6 4)
    )
);

mergePatchPairs
(
);


// ************************************************************************* //
